test/data/ieee13/IEEE13_simple_light_load.dss
Clear 

new circuit.IEEE13Nodeckt 
~ basekv=4.16 pu=1.02 phases=3 bus1=650  
~ MVAsc3=20000 MVASC1=20000    ! stiffen the source to approximate inf source


New linecode.mtx601 nphases=3 BaseFreq=60 
~ rmatrix = (0.3465 | 0.1560 0.3375 | 0.1580 0.1535 0.3414 ) 
~ xmatrix = (1.0179 | 0.5017 1.0478 | 0.4236 0.3849 1.0348 ) 
~ cmatrix = (0.0 | 0.0 0.0 | 0.0 0.0 0.0 ) 
~ units=mi 

New linecode.mtx602 nphases=3 BaseFreq=60 
~ rmatrix = (0.7526 | 0.1580 0.7475 | 0.1560 0.1535 0.7436 ) 
~ xmatrix = (1.1814 | 0.4236 1.1983 | 0.5017 0.3849 1.2112 ) 
~ cmatrix = (0.0 | 0.0 0.0 | 0.0 0.0 0.0 ) 
~ units=mi 

New linecode.mtx603 nphases=2 BaseFreq=60 
~ rmatrix = (1.3238 | 0.2066 1.3294 ) 
~ xmatrix = (1.3569 | 0.4591 1.3471 ) 
~ cmatrix = (0.0 | 0.0 0.0  ) 
~ units=mi 

New linecode.mtx604 nphases=2 BaseFreq=60 
~ rmatrix = (1.3238 | 0.2066 1.3294 ) 
~ xmatrix = (1.3569 | 0.4591 1.3471 ) 
~ cmatrix = (0.0 | 0.0 0.0  ) 
~ units=mi 

New linecode.mtx605 nphases=1 BaseFreq=60 
~ rmatrix = (1.3292 ) 
~ xmatrix = (1.3475 ) 
~ cmatrix = (0.0 ) 
~ units=mi 

New Linecode.mtx606 nphases=3  Units=mi  BaseFreq=60 
~ Rmatrix=[0.791721  |0.318476  0.781649  |0.28345  0.318476  0.791721  ]
~ Xmatrix=[0.438352  |0.0276838  0.396697  |-0.0184204  0.0276838  0.438352  ]
~ cmatrix = (0.0 | 0.0 0.0 | 0.0 0.0 0.0 ) 

New linecode.mtx607 nphases=1 BaseFreq=60 
~ rmatrix = (1.3425 ) 
~ xmatrix = (0.5124 )
~ cmatrix = (0.0 ) 
~ units=mi 


!LOAD DEFINITIONS the vminpu and vmaxpu values can change the load model!    Vminpu=0.8 changes results 
New Load.671 Bus1=671.1.2.3  Phases=3 Conn=Wye  Model=1 kV=4.16   kW=(1155 4 /) kvar=(660 4 /)
New Load.633a Bus1=633.1     Phases=1 Conn=Wye  Model=1 kV=(4.16 3 sqrt /)  kW=(160 4 /)   kvar=(110 4 /)
New Load.633b Bus1=633.2     Phases=1 Conn=Wye  Model=1 kV=(4.16 3 sqrt /)  kW=(120 4 /)   kvar=(90 4 /)
New Load.633c Bus1=633.3     Phases=1 Conn=Wye  Model=1 kV=(4.16 3 sqrt /)  kW=(120 4 /)   kvar=(90 4 /)
New Load.645 Bus1=645.2      Phases=1 Conn=Wye  Model=1 kV=(4.16 3 sqrt /)    kW=(170 4 /)   kvar=(125 4 /)
New Load.646 Bus1=646.3      Phases=1 Conn=Wye  Model=1 kV=(4.16 3 sqrt /)   kW=(230 4 /)   kvar=(132 4 /)
New Load.692 Bus1=692.3      Phases=1 Conn=Wye  Model=1 kV=(4.16 3 sqrt /)   kW=(170 4 /)   kvar=(151 4 /)
New Load.675a Bus1=675.1     Phases=1 Conn=Wye  Model=1 kV=(4.16 3 sqrt /)    kW=(485 4 /)   kvar=(190 4 /)
New Load.675b Bus1=675.2     Phases=1 Conn=Wye  Model=1 kV=(4.16 3 sqrt /)    kW=(68 4 /)    kvar=(60 4 /)
New Load.675c Bus1=675.3     Phases=1 Conn=Wye  Model=1 kV=(4.16 3 sqrt /)    kW=(290 4 /)   kvar=(212 4 /)
New Load.611 Bus1=611.3      Phases=1 Conn=Wye  Model=1 kV=(4.16 3 sqrt /)    kW=(170 4 /)   kvar=(80 4 /)
New Load.652 Bus1=652.1      Phases=1 Conn=Wye  Model=1 kV=(4.16 3 sqrt /)    kW=(128 4 /)   kvar=(86 4 /)
New Load.670a Bus1=670.1     Phases=1 Conn=Wye  Model=1 kV=(4.16 3 sqrt /)    kW=(17 4 /)   kvar=(10 4 /)
New Load.670b Bus1=670.2     Phases=1 Conn=Wye  Model=1 kV=(4.16 3 sqrt /)    kW=(66 4 /)   kvar=(38 4 /)
New Load.670c Bus1=670.3     Phases=1 Conn=Wye  Model=1 kV=(4.16 3 sqrt /)    kW=(117 4 /)   kvar=(68 4 /)



!LINE DEFINITIONS 
New Line.650632    Phases=3 Bus1=650.1.2.3   Bus2=632.1.2.3  LineCode=mtx601 Length=0.3787878787878788 units=mi
New Line.632670    Phases=3 Bus1=632.1.2.3    Bus2=670.1.2.3  LineCode=mtx601 Length=0.12632575757575756  units=mi
New Line.670671    Phases=3 Bus1=670.1.2.3    Bus2=671.1.2.3  LineCode=mtx601 Length=0.2524621212121212 units=mi
New Line.671680    Phases=3 Bus1=671.1.2.3    Bus2=680.1.2.3  LineCode=mtx601 Length=0.1893939393939394 units=mi
New Line.632633    Phases=3 Bus1=632.1.2.3    Bus2=633.1.2.3  LineCode=mtx602 Length=0.0946969696969697  units=mi
New Line.632645    Phases=2 Bus1=632.2.3      Bus2=645.2.3    LineCode=mtx603 Length=0.0946969696969697  units=mi
New Line.645646    Phases=2 Bus1=645.2.3      Bus2=646.2.3    LineCode=mtx603 Length=0.0568181818181818  units=mi
New Line.692675    Phases=3 Bus1=692.1.2.3    Bus2=675.1.2.3  LineCode=mtx606 Length=0.0946969696969697  units=mi
New Line.671684    Phases=2 Bus1=671.1.3      Bus2=684.1.3    LineCode=mtx604 Length=0.05681818181818181  units=mi 
New Line.684611    Phases=1 Bus1=684.3        Bus2=611.3      LineCode=mtx605 Length=0.05681818181818181  units=mi 
New Line.684652    Phases=1 Bus1=684.1        Bus2=652.1      LineCode=mtx607 Length=0.15151515151515152  units=mi 


!SWITCH DEFINITIONS 
New Line.671692    Phases=3 Bus1=671   Bus2=692  Switch=y  r1=1e-4 r0=1e-4 x1=0.000 x0=0.000 c1=0.000 c0=0.000

!Batchedit Load..* vminpu=0.85  ! ensure that load model stays constant power
Set Voltagebases=[4.16]
Set MinIteration=500
Set MaxIter=500  ! default is 15, not enough to get load matching
calcv
Solve
